Version 4
SHEET 1 1860 680
WIRE 0 -192 0 -224
WIRE 0 -80 0 -112
WIRE 0 -80 -560 -80
WIRE 96 -80 0 -80
WIRE 224 -80 176 -80
WIRE -384 32 -512 32
WIRE 608 32 576 32
WIRE 720 32 672 32
WIRE -864 48 -864 16
WIRE 0 80 0 -80
WIRE 64 80 0 80
WIRE -512 112 -512 32
WIRE -480 112 -512 112
WIRE -384 128 -384 32
WIRE -384 128 -416 128
WIRE -352 128 -384 128
WIRE -112 128 -272 128
WIRE 64 128 -112 128
WIRE 224 128 224 -80
WIRE 224 128 192 128
WIRE 464 128 224 128
WIRE 576 128 576 32
WIRE 576 128 544 128
WIRE 608 128 576 128
WIRE 720 128 720 32
WIRE 720 128 688 128
WIRE -864 144 -864 128
WIRE -864 144 -960 144
WIRE -560 144 -560 -80
WIRE -480 144 -560 144
WIRE -864 160 -864 144
WIRE -704 160 -704 128
WIRE -64 176 -112 176
WIRE 64 176 16 176
WIRE -960 192 -960 144
WIRE 576 240 576 128
WIRE 608 240 576 240
WIRE -112 256 -112 176
WIRE 720 256 720 128
WIRE 720 256 672 256
WIRE 784 256 720 256
WIRE -864 272 -864 240
WIRE -704 272 -704 240
WIRE 320 272 192 272
WIRE 448 272 400 272
WIRE 576 272 448 272
WIRE 608 272 576 272
WIRE 448 304 448 272
WIRE 576 320 576 272
WIRE -112 336 -112 256
WIRE 448 416 448 384
WIRE 576 416 576 384
WIRE -112 448 -112 416
WIRE -112 544 -112 528
WIRE -112 544 -160 544
WIRE -112 560 -112 544
FLAG -112 560 0
FLAG -112 128 GUARD
FLAG 128 64 VCC
FLAG 128 192 VEE
FLAG -448 96 VCC
FLAG -448 160 VEE
FLAG 784 256 VOUT
IOPIN 784 256 Out
FLAG -960 192 0
FLAG -864 16 VCC
FLAG -864 272 VEE
FLAG 0 -224 0
FLAG 640 224 VCC
FLAG -704 128 VREF
FLAG 640 288 VEE
FLAG -704 272 0
FLAG -160 544 PH_SHELL
FLAG 192 272 VREF
FLAG 448 416 0
FLAG 576 416 0
FLAG -112 256 VPH
SYMBOL Opamps\\ADA4530-1 128 128 R0
SYMATTR InstName U1
SYMBOL res -128 320 R0
SYMATTR InstName R1
SYMATTR Value 100Meg
SYMBOL voltage -112 432 R0
SYMATTR InstName V1
SYMATTR Value -0.5183V
SYMBOL res 192 -96 R90
WINDOW 0 0 56 VBottom 2
WINDOW 3 32 56 VTop 2
SYMATTR InstName R2
SYMATTR Value 9.1k
SYMATTR SpiceLine tol=0.1
SYMBOL res -16 -208 R0
SYMATTR InstName R3
SYMATTR Value 10k
SYMATTR SpiceLine tol=0.1
SYMBOL res -256 112 R90
WINDOW 0 0 56 VBottom 2
WINDOW 3 32 56 VTop 2
SYMATTR InstName R4
SYMATTR Value 100R
SYMBOL voltage -864 32 R0
SYMATTR InstName V2
SYMATTR Value 2.5V
SYMBOL voltage -864 144 R0
SYMATTR InstName V3
SYMATTR Value 2.5V
SYMBOL voltage -704 144 R0
SYMATTR InstName V4
SYMATTR Value 2.048V
SYMBOL res 464 400 R180
WINDOW 0 36 76 Left 2
WINDOW 3 36 40 Left 2
SYMATTR InstName R7
SYMATTR Value 10k
SYMATTR SpiceLine tol=0.1
SYMBOL res 560 112 R90
WINDOW 0 0 56 VBottom 2
WINDOW 3 32 56 VTop 2
SYMATTR InstName R6
SYMATTR Value 10k
SYMATTR SpiceLine tol=0.1
SYMBOL res 704 112 R90
WINDOW 0 0 56 VBottom 2
WINDOW 3 32 56 VTop 2
SYMATTR InstName R8
SYMATTR Value 10k
SYMATTR SpiceLine tol=0.1
SYMBOL res 416 256 R90
WINDOW 0 0 56 VBottom 2
WINDOW 3 32 56 VTop 2
SYMATTR InstName R5
SYMATTR Value 30k
SYMATTR SpiceLine tol=0.1
SYMBOL cap 672 16 R90
WINDOW 0 0 32 VBottom 2
WINDOW 3 32 32 VTop 2
SYMATTR InstName C1
SYMATTR Value 10n
SYMBOL cap 560 320 R0
SYMATTR InstName C2
SYMATTR Value 100n
SYMBOL Opamps\\AD8552 -448 64 R0
WINDOW 3 -127 106 Left 2
SYMATTR InstName U2
SYMBOL Opamps\\AD8552 640 192 R0
WINDOW 3 -127 64 Left 2
SYMATTR InstName U3
SYMBOL res 32 160 R90
WINDOW 0 0 56 VBottom 2
WINDOW 3 32 56 VTop 2
SYMATTR InstName R10
SYMATTR Value 1Meg
TEXT -984 368 Left 2 !;tran 100s startup
TEXT -512 256 Left 2 ;GUARD_DRIVER
TEXT -312 440 Left 2 ;PH-Probe
TEXT -984 416 Left 2 !.dc V1 -0.52V 0.52V 1mV
RECTANGLE Normal 160 608 -400 320 2
